Version 4
SHEET 1 928 772
WIRE -1056 0 -1488 0
WIRE -976 0 -1056 0
WIRE -880 0 -976 0
WIRE -688 0 -880 0
WIRE -640 0 -688 0
WIRE -528 0 -560 0
WIRE -464 0 -528 0
WIRE -272 0 -400 0
WIRE -176 0 -272 0
WIRE -64 0 -176 0
WIRE 544 0 -64 0
WIRE -1488 64 -1488 0
WIRE -272 64 -272 0
WIRE 544 64 544 0
WIRE -688 80 -688 0
WIRE -528 80 -528 0
WIRE 512 80 80 80
WIRE 640 96 576 96
WIRE 688 96 640 96
WIRE 832 96 752 96
WIRE 368 112 208 112
WIRE 512 112 368 112
WIRE -1056 160 -1056 0
WIRE -64 160 -64 0
WIRE -880 192 -880 0
WIRE -768 192 -880 192
WIRE -272 192 -272 144
WIRE -272 192 -448 192
WIRE 832 192 832 96
WIRE 80 208 80 80
WIRE 208 208 208 112
WIRE -1488 224 -1488 144
WIRE -272 240 -272 192
WIRE 832 304 832 272
WIRE -688 352 -688 304
WIRE -1488 432 -1488 304
WIRE -1056 432 -1056 224
WIRE -688 432 -688 416
WIRE -528 432 -528 304
WIRE -272 432 -272 320
WIRE -64 432 -64 224
WIRE 80 432 80 288
WIRE 208 432 208 288
WIRE 544 432 544 128
WIRE 832 432 832 384
FLAG -1056 432 0
FLAG -1488 432 0
FLAG -688 432 0
FLAG -528 432 0
FLAG -272 432 0
FLAG -64 432 0
FLAG -176 0 reg
FLAG -976 0 in
FLAG 208 432 0
FLAG 832 432 0
FLAG 544 432 0
FLAG 80 432 0
FLAG 832 96 uhr
FLAG 368 112 switch
FLAG 640 96 opout
SYMBOL PowerProducts\\LT8330 -608 192 R0
SYMATTR InstName U1
SYMBOL cap -1072 160 R0
SYMATTR InstName C1
SYMATTR Value 4.7µ
SYMATTR SpiceLine V=100 Irms=0 Rser=0.0043 Lser=1.3n mfg="Würth Elektronik" pn="885012214003 WCAP-CSGP 2220" type="X7R"
SYMBOL voltage -1488 208 R0
WINDOW 123 0 0 Left 0
WINDOW 39 0 0 Left 0
SYMATTR InstName V1
SYMATTR Value 4.5
SYMBOL res -1504 48 R0
SYMATTR InstName R2
SYMATTR Value 1
SYMBOL cap -704 352 R0
SYMATTR InstName C2
SYMATTR Value 1µ
SYMATTR SpiceLine V=16 Irms=0 Rser=0.0237 Lser=872p mfg="Würth Elektronik" pn="885382207001 WCAP-CSST 0805" type="X7R"
SYMBOL ind -544 -16 R90
WINDOW 0 5 56 VBottom 2
WINDOW 3 32 56 VTop 2
SYMATTR InstName L1
SYMATTR Value 1000n
SYMATTR SpiceLine Ipk=1.8 Rser=0.064 Rpar=4276.7 Cpar=424f mfg="Würth Elektronik" pn="744045001 WE-LQ 1812"
SYMBOL schottky -464 16 R270
WINDOW 0 32 32 VTop 2
WINDOW 3 0 32 VBottom 2
SYMATTR InstName D1
SYMATTR Value PMEG6010AED
SYMATTR Description Diode
SYMATTR Type diode
SYMBOL res -288 48 R0
SYMATTR InstName R3
SYMATTR Value 1000k
SYMBOL res -288 224 R0
SYMATTR InstName R4
SYMATTR Value 71k
SYMBOL cap -80 160 R0
SYMATTR InstName C3
SYMATTR Value 10µ
SYMATTR SpiceLine V=50 Irms=0 Rser=0.0051 Lser=500p mfg="Würth Elektronik" pn="885012210031 WCAP-CSGP 1812" type="X7R"
SYMBOL ind 848 400 R180
WINDOW 0 36 80 Left 2
WINDOW 3 36 40 Left 2
SYMATTR InstName L2
SYMATTR Value 0.1
SYMBOL res 848 288 R180
WINDOW 0 36 76 Left 2
WINDOW 3 36 40 Left 2
SYMATTR InstName R5
SYMATTR Value 2k
SYMBOL voltage 208 192 R0
WINDOW 123 0 0 Left 0
WINDOW 39 0 0 Left 0
SYMATTR InstName V2
SYMATTR Value PULSE(0 3 0 1u 1u 100m 200m)
SYMBOL OpAmps\\OP292 544 32 R0
SYMATTR InstName U2
SYMBOL cap 752 80 R90
WINDOW 0 0 32 VBottom 2
WINDOW 3 32 32 VTop 2
SYMATTR InstName C4
SYMATTR Value 100µ
SYMBOL voltage 80 192 R0
WINDOW 123 0 0 Left 0
WINDOW 39 0 0 Left 0
SYMATTR InstName V3
SYMATTR Value 1
TEXT -1520 456 Left 2 !.tran 1s
TEXT -1520 480 Left 2 !.options abstol=1e-3 reltol=0.02
TEXT -1520 504 Left 2 !.ic V(out)=18 V(in)=4.5
